Version 4
SHEET 1 2100 680
WIRE 560 -80 -896 -80
WIRE 2096 -80 560 -80
WIRE -896 256 -896 -80
WIRE -768 256 -896 256
WIRE -528 256 -592 256
WIRE -272 256 -352 256
WIRE 0 256 -96 256
WIRE 272 256 176 256
WIRE 544 256 448 256
WIRE 800 256 720 256
WIRE 1056 256 976 256
WIRE 1312 256 1232 256
WIRE 1552 256 1488 256
WIRE 1792 256 1728 256
WIRE 2096 256 2096 -80
WIRE 2096 256 1968 256
FLAG 560 -80 osc
SYMBOL cmos_symbol -176 256 R0
SYMATTR InstName X1
SYMBOL cmos_symbol 96 256 R0
SYMATTR InstName X2
SYMBOL cmos_symbol 368 256 R0
SYMATTR InstName X3
SYMBOL cmos_symbol 640 256 R0
SYMATTR InstName X4
SYMBOL cmos_symbol 896 256 R0
SYMATTR InstName X5
SYMBOL cmos_symbol 1152 256 R0
SYMATTR InstName X6
SYMBOL cmos_symbol 1408 256 R0
SYMATTR InstName X7
SYMBOL cmos_symbol -432 256 R0
SYMATTR InstName X8
SYMBOL cmos_symbol 1648 256 R0
SYMATTR InstName X9
SYMBOL cmos_symbol -672 256 R0
SYMATTR InstName X10
SYMBOL cmos_symbol 1888 256 R0
SYMATTR InstName X11
TEXT -880 424 Left 2 !.ic v(osc)=1
TEXT -880 472 Left 2 !.include BSIM4_models.txt
TEXT -898 492 Left 2 !.tran 2n
